

 <DUALSPHYSICS>  Copyright (C) 2011 by Jose M. Dominguez, Dr. Alejandro 
 Crespo, Prof. M. Gomez Gesteira, Anxo Barreiro, Dr. Benedict Rogers 

 DualSPHysics code belongs to SPHysics project, www.sphysics.org,  
 an international collaboration between University of Vigo (Spain), 
 University of Manchester (UK) and Johns Hopkins University (USA) 

 This file is part of DualSPHysics project. 

 DualSPHysics is free software: you can redistribute it and/or modify
 it under the terms of the GNU General Public License as published by
 the Free Software Foundation, either version 3 of the License, or
 (at your option) any later version. 

 DualSPHysics is distributed in the hope that it will be useful,
 but WITHOUT ANY WARRANTY; without even the implied warranty of
 MERCHANTABILITY or FITNESS FOR A PARTICULAR PURPOSE.  See the
 GNU General Public License for more details. 

 You should have received a copy of the GNU General Public License,
 along with DualSPHysics. If not, see <http://www.gnu.org/licenses/>. 

 CUDA Data-Parallel Primitives Library (CUDPP) is the proprietary
 property of The Regents of the University of California ("The Regents")
 and NVIDIA Corporation ("NVIDIA"). 


DualSPHysics (11-05-2011) v0.62
================================
[Initialising JSphCpu v0.62  03-10-2011 16:26:38]
Threads for parallel execution: 4
**Case configuration is loaded
Loading initial state of particles...
**Initial state of particles is loaded
**3D-Simulation parameters:
CaseName="CasePump"
RunName="CasePump"
StepAlgorithm="Symplectic"
Kernel="Wendland"
Viscosity="Artificial"
Visco=0.100000
ShepardSteps=0
DBCSteps=1
Np=1009607
Nbound=251427
Nfixed=224797
Nmoving=26630
Nfloat=0
Dx=0.004000
H=0.006000
CteB=273558.906250
Gamma=7.000000
Rhop0=1000.000000
Eps=0.500000
Cs0=43.759712
CFLnumber=0.200000
DtIni=0.000100
DtMin=0.000010
MassFluid=0.000064
MassBound=0.000064
CteA2=1473658.750000
CubicCte.a1=0.000000
CubicCte.aa=0.000000
CubicCte.a24=0.000000
CubicCte.c1=0.000000
CubicCte.c2=0.000000
CubicCte.d1=0.000000
CubicCte.od_wdeltap=0.000000
WendlandCte.awen=1934169.250000
WendlandCte.bwen=-1611816192.000000
TimeMax=6.000000
TimePart=0.060000
Gravity=(0.000000,0.000000,-9.810000)
IncZ=0.100000
PartOutMax=682362
RhopOut=True
RhopOutMin=700.000000
RhopOutMax=1300.000000
RunMode="OpenMP threads:4, Dynamic, SSE:True"
KerMode="KHdiv2Bg"

**Initialising JDivideCpu
Domain limits: (-0.3203,-0.5363,-1.0123)-(0.2363,0.2603,0.0268)
Dimensions: 0.556600 x 0.796600 x 1.039060
Allocated memory in CPU: 270159184 (257.64 Mb)
Part_0000

[Initialising simulation  03-10-2011 16:26:38]
PART       PartTime      TotalSteps    Steps    Time/Seg   Finish time   
=========  ============  ============  =======  =========  ==============
Part_0001      0.060003          2586     2586  136864.14  13-10-11 04:33
Part_0002      0.120019          5462     2876  154762.67  13-10-11 19:28
Part_0003      0.180008          8298     2836  155995.53  14-10-11 01:07
Part_0004      0.240013         11103     2805  151723.58  14-10-11 02:10
Part_0005      0.300016         13905     2802  148202.05  14-10-11 01:37
Part_0006      0.360009         16705     2800  147979.02  14-10-11 01:12
Part_0007      0.420016         19498     2793  147741.94  14-10-11 00:50
Part_0008      0.480013         22268     2770  146450.75  14-10-11 00:18
Part_0009      0.540001         25050     2782  148869.23  14-10-11 00:19
Part_0010      0.600015         27847     2797  155023.31  14-10-11 01:22
Part_0011      0.660012         30669     2822  158302.72  14-10-11 02:44
Part_0012      0.720017         33428     2759  154297.89  14-10-11 03:18
Part_0013      0.780001         36183     2755  151389.69  14-10-11 03:25
Part_0014      0.840011         38944     2761  151579.94  14-10-11 03:32
Part_0015      0.900001         41930     2986  162914.75  14-10-11 04:53
Part_0016      0.960006         44657     2727  146424.11  14-10-11 04:22
Part_0017      1.020002         47419     2762  147945.64  14-10-11 04:03
Part_0018      1.080021         50312     2893  155080.19  14-10-11 04:26
Part_0019      1.140008         53039     2727  146209.81  14-10-11 04:00
Part_0020      1.200010         55979     2940  157573.53  14-10-11 04:33
Part_0021      1.260014         58733     2754  147745.39  14-10-11 04:16
Part_0022      1.320012         61644     2911  159387.97  14-10-11 04:54
Part_0023      1.380008         64460     2816  153959.23  14-10-11 05:05
Part_0024      1.440004         67426     2966  159272.64  14-10-11 05:37
Part_0025      1.500021         70360     2934  157630.14  14-10-11 05:59
Part_0026      1.560020         73185     2825  152550.27  14-10-11 06:01
Part_0027      1.620013         75998     2813  152067.69  14-10-11 06:01
Part_0028      1.680017         78858     2860  153819.86  14-10-11 06:07
Part_0029      1.740017         81814     2956  159163.23  14-10-11 06:31
Part_0030      1.800011         84818     3004  161443.77  14-10-11 07:01
Part_0031      1.860005         87777     2959  159243.77  14-10-11 07:22
Part_0032      1.920010         90647     2870  156335.69  14-10-11 07:32
Part_0033      1.980013         93609     2962  159624.91  14-10-11 07:52
Part_0034      2.040002         96587     2978  160706.97  14-10-11 08:14
Part_0035      2.100013         99497     2910  156983.64  14-10-11 08:24
Part_0036      2.160012        102533     3036  163607.20  14-10-11 08:52
Part_0037      2.220000        105700     3167  170485.22  14-10-11 09:37
Part_0038      2.280003        108806     3106  167309.58  14-10-11 10:11
Part_0039      2.340002        111863     3057  164440.61  14-10-11 10:36
Part_0040      2.400008        114881     3018  163311.06  14-10-11 10:57
Part_0041      2.460008        117883     3002  161639.73  14-10-11 11:13
Part_0042      2.520008        121063     3180  171641.11  14-10-11 11:52
Part_0043      2.580005        124231     3168  171151.84  14-10-11 12:28
Part_0044      2.640013        127311     3080  166085.17  14-10-11 12:51
Part_0045      2.700008        130399     3088  166995.98  14-10-11 13:15
Part_0046      2.760003        133465     3066  165865.34  14-10-11 13:35
Part_0047      2.820010        136533     3068  165598.97  14-10-11 13:54
Part_0048      2.880001        139607     3074  167636.72  14-10-11 14:17
Part_0049      2.940015        142726     3119  170901.86  14-10-11 14:45
Part_0050      3.000013        145879     3153  171848.41  14-10-11 15:14
Part_0051      3.060017        148921     3042  165248.66  14-10-11 15:29
Part_0052      3.120007        151937     3016  163937.66  14-10-11 15:40
Part_0053      3.180001        155102     3165  172485.94  14-10-11 16:08
Part_0054      3.240018        158296     3194  172724.55  14-10-11 16:35
Part_0055      3.300017        161358     3062  165640.59  14-10-11 16:48
Part_0056      3.360002        164425     3067  166354.42  14-10-11 17:01
Part_0057      3.420004        167502     3077  167588.59  14-10-11 17:17
Part_0058      3.480020        170597     3095  171118.30  14-10-11 17:38
Part_0059      3.540014        173639     3042  164914.03  14-10-11 17:48
Part_0060      3.600003        176832     3193  173236.56  14-10-11 18:11
Part_0061      3.660010        180028     3196  175825.31  14-10-11 18:38
Part_0062      3.720009        183093     3065  171132.44  14-10-11 18:56
Part_0063      3.780005        186101     3008  163581.25  14-10-11 19:02
Part_0064      3.840013        189281     3180  172337.55  14-10-11 19:22
Part_0065      3.900006        192469     3188  173647.92  14-10-11 19:42
Part_0066      3.960017        195585     3116  169846.91  14-10-11 19:57
Part_0067      4.020015        198743     3158  171294.09  14-10-11 20:13
Part_0068      4.080001        201878     3135  170230.81  14-10-11 20:27
Part_0069      4.140015        205030     3152  171309.70  14-10-11 20:42
Part_0070      4.200016        208126     3096  168099.30  14-10-11 20:52
Part_0071      4.260017        211347     3221  174865.27  14-10-11 21:12
Part_0072      4.320004        214597     3250  176521.38  14-10-11 21:33
Part_0073      4.380002        217718     3121  169332.55  14-10-11 21:44
Part_0074      4.440013        220788     3070  170115.59  14-10-11 21:55
Part_0075      4.500007        223964     3176  176454.97  14-10-11 22:15
Part_0076      4.560003        227210     3246  180367.42  14-10-11 22:39
Part_0077      4.620011        230400     3190  177606.84  14-10-11 22:59
Part_0078      4.680013        233546     3146  175729.14  14-10-11 23:17
Part_0079      4.740014        236735     3189  175374.50  14-10-11 23:33
Part_0080      4.800017        239975     3240  174896.78  14-10-11 23:48
Part_0081      4.860009        243081     3106  167718.17  14-10-11 23:54
Part_0082      4.920002        246331     3250  175335.12  15-10-11 00:09
Part_0083      4.980017        249653     3322  179196.20  15-10-11 00:29
Part_0084      5.040014        252815     3162  170426.59  15-10-11 00:37
Part_0085      5.100013        255945     3130  169021.38  15-10-11 00:44
Part_0086      5.160000        259179     3234  174730.67  15-10-11 00:57
Part_0087      5.220018        262412     3233  174395.53  15-10-11 01:10
Part_0088      5.280004        265618     3206  172912.19  15-10-11 01:20
Part_0089      5.340010        268824     3206  172710.55  15-10-11 01:30
Part_0090      5.400001        272038     3214  174563.58  15-10-11 01:42
Part_0091      5.460011        275285     3247  175550.61  15-10-11 01:55
Part_0092      5.520005        278462     3177  171142.55  15-10-11 02:03
Part_0093      5.580005        281701     3239  174605.12  15-10-11 02:14
Part_0094      5.640002        285016     3315  178843.97  15-10-11 02:29
Part_0095      5.700009        288185     3169  170746.53  15-10-11 02:36
Part_0096      5.760012        291356     3171  170831.67  15-10-11 02:43
Part_0097      5.820006        294623     3267  177302.62  15-10-11 02:56
Part_0098      5.880013        297875     3252  178199.03  15-10-11 03:10
Part_0099      5.940016        301132     3257  176518.39  15-10-11 03:21
Part_0100      6.000004        304360     3228  173767.08  15-10-11 03:30

[Simulation finished  15-10-2011 03:30:46]
DTs adjusted to DtMin............: 0
Excluded particles...............: 0
Excluded particles due to RhopOut: 0
Total Runtime....................: 990248.437500 seg.
Simulation Runtime...............: 990248.125000 seg.
Time per second of simulation....: 165041.250000 seg.
Steps per second.................: 0.307357
Steps of simulation..............: 304360
PART files.......................: 101

[CPU Timers]
NL-DivideBound...................: 4174.920410 seg.
NL-SortDataBound.................: 3253.019287 seg.
NL-DivideFluid...................: 14387.474609 seg.
NL-SortDataFluid.................: 22329.173828 seg.
CF-PreInteraction................: 33679.433594 seg.
CF-Interaction...................: 898262.437500 seg.
CF-Shepard.......................: 0.000000 seg.
SU-CalcDt........................: 4675.479492 seg.
SU-ComputeStep...................: 8744.951172 seg.
SU-Floating......................: 0.000000 seg.
SU-Motion........................: 1215.301270 seg.
SU-SavePart......................: 7.606630 seg.
SU-SaveRhop......................: 0.000000 seg.
 
